Version 4
SHEET 1 2292 1520
WIRE 80 -560 80 -576
WIRE 336 -544 320 -544
WIRE 592 -544 528 -544
WIRE -320 -512 -352 -512
WIRE -160 -512 -240 -512
WIRE -48 -512 -96 -512
WIRE 48 -512 32 -512
WIRE 80 -512 48 -512
WIRE 848 -512 832 -512
WIRE 880 -512 848 -512
WIRE 1024 -512 960 -512
WIRE 592 -480 560 -480
WIRE 48 -384 48 -512
WIRE 160 -384 48 -384
WIRE 336 -384 336 -544
WIRE 336 -384 240 -384
WIRE 48 -368 48 -384
WIRE 560 -352 560 -480
WIRE 848 -352 848 -512
WIRE 848 -352 560 -352
WIRE 48 -272 48 -288
WIRE 80 -224 80 -240
WIRE 1136 -224 1136 -240
WIRE 336 -208 320 -208
WIRE 592 -208 528 -208
WIRE 1392 -208 1376 -208
WIRE 1536 -208 1392 -208
WIRE 1632 -192 1632 -224
WIRE -336 -176 -352 -176
WIRE -160 -176 -256 -176
WIRE -64 -176 -96 -176
WIRE 48 -176 16 -176
WIRE 80 -176 48 -176
WIRE 848 -176 832 -176
WIRE 880 -176 848 -176
WIRE 1024 -176 1024 -512
WIRE 1024 -176 960 -176
WIRE 1104 -176 1024 -176
WIRE 1136 -176 1104 -176
WIRE 1632 -160 1632 -192
WIRE 592 -144 560 -144
WIRE -976 -48 -976 -64
WIRE -880 -48 -880 -64
WIRE -784 -48 -784 -64
WIRE -688 -48 -688 -64
WIRE 48 -48 48 -176
WIRE 160 -48 48 -48
WIRE 336 -48 336 -208
WIRE 336 -48 240 -48
WIRE 48 -32 48 -48
WIRE 1104 -32 1104 -176
WIRE 1200 -32 1104 -32
WIRE 1392 -32 1392 -208
WIRE 1392 -32 1280 -32
WIRE 560 -16 560 -144
WIRE 848 -16 848 -176
WIRE 848 -16 560 -16
WIRE -976 48 -976 32
WIRE -880 48 -880 32
WIRE -880 48 -976 48
WIRE -784 48 -784 32
WIRE -784 48 -880 48
WIRE -736 48 -784 48
WIRE -688 48 -688 32
WIRE -688 48 -736 48
WIRE -736 64 -736 48
WIRE 48 64 48 48
WIRE 80 112 80 96
WIRE 336 128 320 128
WIRE 592 128 528 128
WIRE -336 160 -352 160
WIRE -160 160 -256 160
WIRE -48 160 -96 160
WIRE 48 160 32 160
WIRE 80 160 48 160
WIRE 848 160 832 160
WIRE 880 160 848 160
WIRE 1024 160 1024 -176
WIRE 1024 160 960 160
WIRE 592 192 560 192
WIRE 48 288 48 160
WIRE 160 288 48 288
WIRE 336 288 336 128
WIRE 336 288 240 288
WIRE 48 304 48 288
WIRE 560 320 560 192
WIRE 848 320 848 160
WIRE 848 320 560 320
WIRE 48 400 48 384
FLAG -736 64 0
FLAG -976 -64 BD
FLAG 192 -624 BD
FLAG 160 -448 VSS
FLAG 160 -640 VDD
FLAG -352 -512 Vi
FLAG -688 -64 Vi
FLAG 192 -288 BD
FLAG 160 -112 VSS
FLAG 160 -304 VDD
FLAG 192 48 BD
FLAG 160 224 VSS
FLAG 160 32 VDD
FLAG -352 -176 Vi
FLAG 80 -560 0
FLAG 336 -544 C1
FLAG 336 -208 C2
FLAG 336 128 C3
FLAG 80 -224 0
FLAG -352 160 Vi
FLAG 80 112 0
FLAG 704 -592 BD
FLAG 672 -416 VSS
FLAG 672 -608 VDD
FLAG 528 -544 C1
FLAG 704 -256 BD
FLAG 672 -80 VSS
FLAG 672 -272 VDD
FLAG 528 -208 C2
FLAG 1248 -288 BD
FLAG 1216 -112 VSS
FLAG 1216 -304 VDD
FLAG 1136 -224 0
FLAG 704 80 BD
FLAG 672 256 VSS
FLAG 672 64 VDD
FLAG 528 128 C3
FLAG -784 -64 VDD
FLAG -880 -64 VSS
FLAG 48 -272 0
FLAG 48 64 0
FLAG 48 400 0
FLAG 704 -432 BD
FLAG 704 -96 BD
FLAG 704 240 BD
FLAG 192 208 BD
FLAG 192 -128 BD
FLAG 192 -464 BD
FLAG 1248 -128 BD
FLAG 1536 -208 Vo
FLAG 1632 -80 0
FLAG 1632 -304 Vo
FLAG 1632 -192 Vo2
SYMBOL voltage -688 -64 R0
WINDOW 123 24 44 Left 2
WINDOW 39 0 0 Left 0
WINDOW 3 24 72 Left 2
SYMATTR Value2 AC 1
SYMATTR Value wavefile="sound_input.wav"chan=0
SYMATTR InstName V1
SYMBOL voltage -784 -64 R0
WINDOW 123 0 0 Left 0
WINDOW 39 0 0 Left 0
SYMATTR InstName V2
SYMATTR Value 9
SYMBOL voltage -880 -64 R0
WINDOW 123 0 0 Left 0
WINDOW 39 0 0 Left 0
SYMATTR InstName V3
SYMATTR Value -9
SYMBOL voltage -976 -64 R0
WINDOW 123 0 0 Left 0
WINDOW 39 0 0 Left 0
SYMATTR InstName V4
SYMATTR Value -8
SYMBOL RB011 160 -544 R0
SYMATTR InstName X4
SYMBOL res 48 -528 R90
WINDOW 0 0 56 VBottom 2
WINDOW 3 32 56 VTop 2
SYMATTR InstName R3
SYMATTR Value 10k
SYMBOL res 256 -400 R90
WINDOW 0 0 56 VBottom 2
WINDOW 3 32 56 VTop 2
SYMATTR InstName R6
SYMATTR Value {R1}
SYMBOL RB011 160 -208 R0
SYMATTR InstName X1
SYMBOL res 256 -64 R90
WINDOW 0 0 56 VBottom 2
WINDOW 3 32 56 VTop 2
SYMATTR InstName R2
SYMATTR Value {R3}
SYMBOL RB011 160 128 R0
SYMATTR InstName X3
SYMBOL cap -96 144 R90
WINDOW 0 0 32 VBottom 2
WINDOW 3 32 32 VTop 2
SYMATTR InstName C2
SYMATTR Value 2n
SYMBOL res 256 272 R90
WINDOW 0 0 56 VBottom 2
WINDOW 3 32 56 VTop 2
SYMATTR InstName R5
SYMATTR Value {R5}
SYMBOL ind -224 -528 R90
WINDOW 0 5 56 VBottom 2
WINDOW 3 32 56 VTop 2
SYMATTR InstName L1
SYMATTR Value 1.5
SYMBOL res 32 -192 R90
WINDOW 0 0 56 VBottom 2
WINDOW 3 32 56 VTop 2
SYMATTR InstName R1
SYMATTR Value 10k
SYMBOL res 48 144 R90
WINDOW 0 0 56 VBottom 2
WINDOW 3 32 56 VTop 2
SYMATTR InstName R4
SYMATTR Value 10k
SYMBOL RB011 672 -512 R0
SYMATTR InstName X2
SYMBOL RB011 672 -176 R0
SYMATTR InstName X5
SYMBOL res 976 -528 R90
WINDOW 0 0 56 VBottom 2
WINDOW 3 32 56 VTop 2
SYMATTR InstName R7
SYMATTR Value 100k
SYMBOL res 976 -192 R90
WINDOW 0 0 56 VBottom 2
WINDOW 3 32 56 VTop 2
SYMATTR InstName R8
SYMATTR Value 100k
SYMBOL RB011 1216 -208 R0
SYMATTR InstName X6
SYMBOL res 1296 -48 R90
WINDOW 0 0 56 VBottom 2
WINDOW 3 32 56 VTop 2
SYMATTR InstName R9
SYMATTR Value {R7}
SYMBOL RB011 672 160 R0
SYMATTR InstName X7
SYMBOL res 976 144 R90
WINDOW 0 0 56 VBottom 2
WINDOW 3 32 56 VTop 2
SYMATTR InstName R10
SYMATTR Value 100k
SYMBOL res 32 -384 R0
SYMATTR InstName R14
SYMATTR Value {R2}
SYMBOL res 32 -48 R0
SYMATTR InstName R15
SYMATTR Value {R4}
SYMBOL res 32 288 R0
SYMATTR InstName R16
SYMATTR Value {R6}
SYMBOL ind -240 -192 R90
WINDOW 0 5 56 VBottom 2
WINDOW 3 32 56 VTop 2
SYMATTR InstName L8
SYMATTR Value .2652
SYMBOL ind -240 144 R90
WINDOW 0 5 56 VBottom 2
WINDOW 3 32 56 VTop 2
SYMATTR InstName L10
SYMATTR Value .07958
SYMBOL cap -96 -192 R90
WINDOW 0 0 32 VBottom 2
WINDOW 3 32 32 VTop 2
SYMATTR InstName C7
SYMATTR Value 15.915n
SYMBOL cap -96 -528 R90
WINDOW 0 0 32 VBottom 2
WINDOW 3 32 32 VTop 2
SYMATTR InstName C1
SYMATTR Value 795.77n
SYMBOL res 1616 -320 R0
SYMATTR InstName R11
SYMATTR Value 90k
SYMBOL res 1616 -176 R0
SYMATTR InstName R12
SYMATTR Value 10k
TEXT -736 -304 Left 2 ;.four 1k 20 v(vo)
TEXT -1352 -328 Left 2 !.op
TEXT -1352 -280 Left 2 !;ac dec 100000 2 200000
TEXT -1352 -304 Left 2 !.tran 10
TEXT -1352 -256 Left 2 !.wave "sound_output.wav" 16 44100 Vo2
TEXT -976 -464 Left 2 ;.step param vbd -6.9 -6.85 -.01
TEXT -1344 -432 Left 2 ;.param in=0
TEXT -976 -488 Left 2 ;.step param Val 1 80 1
TEXT -976 -512 Left 2 !.param R7=100k
TEXT -920 -328 Left 2 ;.four 1k 20 v(C1)
TEXT -920 -304 Left 2 ;.four 1k 20 v(C2)
TEXT -920 -280 Left 2 ;.four 1k 20 v(C3)
TEXT -1344 -512 Left 2 !.param R1=80k
TEXT -1344 -488 Left 2 !.param R2=10k
TEXT -1344 -464 Left 2 !.param R3=10k
TEXT -1160 -512 Left 2 !.param R4=10k
TEXT -1160 -488 Left 2 !.param R5=50k
TEXT -1160 -464 Left 2 !.param R6=10k
TEXT -1352 -680 Left 2 ;The custom power supply cannot be hooked up\nthis is due to the simulation entering thread errors
TEXT -784 -208 Left 2 ;Simulation Commands
TEXT -664 -400 Left 2 ;User Inputs
TEXT -656 -576 Left 2 ;Comments
TEXT -584 128 Left 2 ;Voltage Supplies
TEXT 304 424 Left 2 ;Freq. Channels
TEXT 1088 328 Left 2 ;Unity buffer and Summing Circuit
TEXT 1904 328 Left 2 ;Power Amplifier
TEXT -368 232 Left 2 ;ideal L= .07958 H C= 2nF
TEXT -368 -112 Left 2 ;ideal L= .2652 H C=15.915 nF
TEXT -368 -448 Left 2 ;ideal C= 795.77 nF
TEXT -1352 -576 Left 2 ;Created by Jakub Ostrowski, May 5, 2020
LINE Normal 1440 352 1440 -672 2
RECTANGLE Normal -528 -192 -1360 -368 2
RECTANGLE Normal -528 -384 -1360 -544 2
RECTANGLE Normal -528 -560 -1360 -704 2
RECTANGLE Normal -400 144 -1360 -176 2
RECTANGLE Normal 2080 352 480 -672 2
RECTANGLE Normal 464 -704 -384 448 2
