Version 4
SHEET 1 880 680
WIRE 96 144 80 144
WIRE 208 144 176 144
WIRE 336 144 208 144
WIRE 384 144 336 144
WIRE 464 144 384 144
WIRE 208 224 208 208
WIRE 208 224 80 224
WIRE 336 224 208 224
WIRE 464 224 336 224
FLAG 384 144 V1
FLAG 80 224 -
FLAG 80 144 +
SYMBOL res 192 128 R90
WINDOW 0 0 56 VBottom 2
WINDOW 3 32 56 VTop 2
SYMATTR InstName R1
SYMATTR Value 6.767
SYMBOL cap 192 144 R0
SYMATTR InstName C1
SYMATTR Value 6.244235m
SYMBOL ind 320 128 R0
SYMATTR InstName L1
SYMATTR Value .6033m
SYMBOL res 448 128 R0
SYMATTR InstName R2
SYMATTR Value 49
TEXT 40 256 Left 2 ;Created by Jakub Ostrowski, May 5, 2020
