Version 4
SHEET 1 1508 680
WIRE 16 -16 0 -16
WIRE 144 -16 16 -16
WIRE 208 -16 144 -16
WIRE 224 -16 208 -16
WIRE 432 -16 224 -16
WIRE 448 -16 432 -16
WIRE 16 0 16 -16
WIRE 208 0 208 -16
WIRE 432 0 432 -16
WIRE 0 48 0 -16
WIRE 16 48 0 48
WIRE 224 48 224 -16
WIRE 224 48 208 48
WIRE 448 48 448 -16
WIRE 448 48 432 48
WIRE 80 80 64 80
WIRE 160 80 80 80
WIRE 384 80 272 80
WIRE 16 112 16 96
WIRE 80 112 80 80
WIRE 80 112 16 112
WIRE 208 128 208 96
WIRE 272 128 272 80
WIRE 272 128 208 128
WIRE 352 128 336 128
WIRE 432 128 432 96
WIRE 480 128 432 128
WIRE 16 144 16 112
WIRE 208 144 208 128
WIRE 48 192 16 192
WIRE 208 192 176 192
WIRE -32 224 -80 224
WIRE 288 224 256 224
WIRE 16 256 16 240
WIRE 48 256 48 192
WIRE 48 256 16 256
WIRE 112 256 48 256
WIRE 176 256 176 192
WIRE 176 256 112 256
WIRE 208 256 208 240
WIRE 208 256 176 256
WIRE 112 272 112 256
WIRE 432 272 432 128
WIRE 128 320 112 320
WIRE 448 320 432 320
WIRE 64 352 16 352
WIRE 384 352 320 352
WIRE 112 384 112 368
WIRE 128 384 128 320
WIRE 128 384 112 384
WIRE 432 384 432 368
WIRE 448 384 448 320
WIRE 448 384 432 384
WIRE 112 416 112 384
WIRE 432 416 432 384
FLAG 112 416 Vss
FLAG 432 416 Vss
FLAG 480 128 OUT
FLAG 16 352 BD
FLAG 320 352 BS
FLAG 288 224 +
FLAG -80 224 -
FLAG 144 -16 VDD
SYMBOL nmos4 -32 144 R0
SYMATTR InstName M1
SYMATTR Value RB01n
SYMBOL nmos4 256 144 M0
SYMATTR InstName M2
SYMATTR Value RB01n
SYMBOL pmos4 160 0 R0
SYMATTR InstName M3
SYMATTR Value RB01p
SYMBOL pmos4 64 0 M0
SYMATTR InstName M4
SYMATTR Value RB01p
SYMBOL res 448 112 R90
WINDOW 0 0 56 VBottom 2
WINDOW 3 32 56 VTop 2
SYMATTR InstName R2
SYMATTR Value 100k
SYMBOL cap 336 112 R90
WINDOW 0 0 32 VBottom 2
WINDOW 3 32 32 VTop 2
SYMATTR InstName C1
SYMATTR Value 1f
SYMBOL pmos4 384 0 R0
SYMATTR InstName M6
SYMATTR Value RB01p2
SYMBOL nmos4 64 272 R0
SYMATTR InstName M5
SYMATTR Value RB01n
SYMBOL nmos4 384 272 R0
SYMATTR InstName M7
SYMATTR Value RB01n2
TEXT 552 -8 Left 2 !.model RB01n2 NMOS(L=3u W=13.158u Gamma=0.2 Lambda=0.0132 Vto=0.3\n+ Uo=500 Tox=18.2n Level=1)
TEXT 552 48 Left 2 !.model RB01p2 PMOS(L=3u W=48u Gamma=0.2 Lambda=0.0132 Vto=-0.3\n+ Uo=250 Tox=18.2n Level=1)
TEXT 552 136 Left 2 !.model RB01n NMOS(L=3u W=24u Gamma=0.2 Lambda=0.0132 Vto=0.3\n+ Uo=500 Tox=18.2n Level=1)
TEXT 552 192 Left 2 !.model RB01p PMOS(L=3u W=48u Gamma=0.2 Lambda=0.0132 Vto=-0.3\n+ Uo=250 Tox=18.2n Level=1)
TEXT 560 272 Left 2 ;Created by Jakub Ostrowski May 5, 2020
