Version 4
SHEET 1 2724 1508
WIRE 896 -80 624 -80
WIRE 1136 -80 896 -80
WIRE 1232 -80 1136 -80
WIRE 1568 -80 1488 -80
WIRE 1616 -80 1568 -80
WIRE 1792 -80 1696 -80
WIRE 1872 -80 1792 -80
WIRE 1984 -80 1952 -80
WIRE 1984 -48 1984 -80
WIRE 1792 -16 1792 -80
WIRE 624 32 624 -80
WIRE 896 32 896 -80
WIRE -112 64 -128 64
WIRE 0 64 -112 64
WIRE 176 64 80 64
WIRE 480 64 304 64
WIRE 496 64 480 64
WIRE 1136 64 1136 -80
WIRE 496 160 496 64
WIRE 624 160 624 96
WIRE 624 160 496 160
WIRE 1136 176 1136 128
WIRE 1360 176 1360 16
WIRE 1360 176 1136 176
WIRE 1792 176 1792 64
WIRE 1792 176 1360 176
WIRE 896 208 896 96
WIRE 896 208 496 208
WIRE 624 240 624 160
WIRE 896 240 896 208
WIRE -128 272 -128 64
WIRE 176 272 176 64
WIRE 304 272 304 64
WIRE 624 432 624 304
WIRE 896 432 896 304
WIRE 896 432 624 432
WIRE 1136 432 896 432
WIRE 1232 432 1136 432
WIRE 1568 432 1488 432
WIRE 1632 432 1568 432
WIRE 1792 432 1712 432
WIRE 1840 432 1792 432
WIRE 1952 432 1920 432
WIRE 1952 448 1952 432
WIRE 1792 480 1792 432
WIRE -128 544 -128 352
WIRE 16 544 -128 544
WIRE 176 544 176 352
WIRE 176 544 16 544
WIRE 304 544 304 352
WIRE 496 544 496 208
WIRE 496 544 304 544
WIRE 1136 544 1136 432
WIRE 1136 656 1136 608
WIRE 1360 656 1360 528
WIRE 1360 656 1136 656
WIRE 1792 656 1792 560
WIRE 1792 656 1360 656
FLAG 1136 176 0
FLAG 16 544 0
FLAG -112 64 Vin
FLAG 480 64 Vsec
FLAG 1568 -80 Vout
FLAG 1136 656 0
FLAG 1568 432 VoutMinus
FLAG 1952 448 0
FLAG 1984 -48 0
SYMBOL voltage -128 256 R0
WINDOW 123 0 0 Left 0
WINDOW 39 0 0 Left 0
SYMATTR InstName V1
SYMATTR Value SINE(0 169.71 60)
SYMBOL res 96 48 R90
WINDOW 0 0 56 VBottom 2
WINDOW 3 32 56 VTop 2
SYMATTR InstName R1
SYMATTR Value 0.01
SYMBOL ind2 160 256 R0
SYMATTR InstName L1
SYMATTR Value 4608µ
SYMATTR Type ind
SYMBOL ind2 320 256 M0
SYMATTR InstName L2
SYMATTR Value 75µ
SYMATTR Type ind
SYMBOL diode 640 96 R180
WINDOW 0 24 64 Left 2
WINDOW 3 24 0 Left 2
SYMATTR InstName D1
SYMATTR Value 1N914
SYMBOL diode 640 304 R180
WINDOW 0 24 64 Left 2
WINDOW 3 24 0 Left 2
SYMATTR InstName D2
SYMATTR Value 1N914
SYMBOL diode 912 96 R180
WINDOW 0 24 64 Left 2
WINDOW 3 24 0 Left 2
SYMATTR InstName D3
SYMATTR Value 1N914
SYMBOL diode 912 304 R180
WINDOW 0 24 64 Left 2
WINDOW 3 24 0 Left 2
SYMATTR InstName D4
SYMATTR Value 1N914
SYMBOL cap 1120 64 R0
SYMATTR InstName C1
SYMATTR Value 1m
SYMBOL PowerProducts\\LT1083-12 1360 -80 R0
SYMATTR InstName U1
SYMBOL cap 1120 544 R0
SYMATTR InstName C2
SYMATTR Value 1m
SYMBOL PowerProducts\\LT1083-12 1360 432 R0
SYMATTR InstName U2
SYMBOL ind 1600 -64 R270
WINDOW 0 32 56 VTop 2
WINDOW 3 5 56 VBottom 2
SYMATTR InstName L3
SYMATTR Value 20
SYMBOL ind 1616 448 R270
WINDOW 0 32 56 VTop 2
WINDOW 3 5 56 VBottom 2
SYMATTR InstName L4
SYMATTR Value 20
SYMBOL res 1808 576 R180
WINDOW 0 36 76 Left 2
WINDOW 3 36 40 Left 2
SYMATTR InstName R3
SYMATTR Value 1Meg
SYMBOL res 1936 416 R90
WINDOW 0 0 56 VBottom 2
WINDOW 3 32 56 VTop 2
SYMATTR InstName R2
SYMATTR Value 10k
SYMBOL res 1776 -32 R0
SYMATTR InstName R4
SYMATTR Value 1Meg
SYMBOL res 1968 -96 R90
WINDOW 0 0 56 VBottom 2
WINDOW 3 32 56 VTop 2
SYMATTR InstName R5
SYMATTR Value 10k
TEXT 184 40 Left 2 !K1 L1 L2 1
TEXT 1352 -280 Left 2 !.tran 10
TEXT 1352 -256 Left 2 !.lib "C:\\Users\\jost1\\OneDrive\\Columbia 2019-2020\\Spring 2020\\Senior Design\\Examples\\LF411.MOD"
TEXT 1352 -344 Left 2 !.model RB02p PMOS(L=1u W=55m Gamma=0.2 Lambda=0.0132 Vto=-0.3\n+ Uo=250 Tox=18.2n Level=1)
TEXT 1352 -400 Left 2 !.model RB02n NMOS(L= 100u W=100m Gamma=0.2 Lambda=0.0132 Vto=0.3\n+ Uo=500 Tox=18.2n Level=1)
TEXT -112 -368 Left 2 ;Completed by Muhammad Aziz\nEdited by Jakub Ostrowski\nLast Edited: 05/14/2020
