Version 4
SHEET 1 880 680
WIRE 208 -16 112 -16
WIRE 368 -16 288 -16
WIRE 304 64 224 64
WIRE 224 96 224 64
WIRE -224 112 -368 112
WIRE -112 112 -144 112
WIRE 0 112 -32 112
WIRE 112 112 112 -16
WIRE 112 112 64 112
WIRE 192 112 112 112
WIRE 368 128 368 -16
WIRE 368 128 256 128
WIRE 192 144 112 144
WIRE 512 144 512 48
WIRE 688 144 688 48
WIRE -368 160 -368 112
WIRE 112 192 112 144
WIRE 224 224 224 160
WIRE 224 224 160 224
WIRE -368 288 -368 240
WIRE 512 320 512 224
WIRE 688 320 688 224
WIRE 688 320 512 320
WIRE 512 352 512 320
FLAG -368 288 0
FLAG 112 192 0
FLAG 304 64 VDD
FLAG 160 224 VSS
FLAG 512 352 0
FLAG 512 48 VDD
FLAG 688 48 VSS
SYMBOL Opamps\\opamp2 224 64 R0
SYMATTR InstName U1
SYMATTR Value LF411/ns
SYMBOL cap 64 96 R90
WINDOW 0 0 32 VBottom 2
WINDOW 3 32 32 VTop 2
SYMATTR InstName C1
SYMATTR Value 220n
SYMBOL voltage -368 144 R0
WINDOW 123 24 124 Left 2
WINDOW 39 0 0 Left 0
SYMATTR Value2 AC 1
SYMATTR InstName V1
SYMATTR Value SINE(0 1 20)
SYMBOL voltage 512 128 R0
WINDOW 123 0 0 Left 0
WINDOW 39 0 0 Left 0
SYMATTR InstName V2
SYMATTR Value 9
SYMBOL voltage 688 128 R0
WINDOW 123 0 0 Left 0
WINDOW 39 0 0 Left 0
SYMATTR InstName V3
SYMATTR Value -9
SYMBOL res 304 -32 R90
WINDOW 0 0 56 VBottom 2
WINDOW 3 32 56 VTop 2
SYMATTR InstName R1
SYMATTR Value 10k
SYMBOL ind -128 96 R90
WINDOW 0 5 56 VBottom 2
WINDOW 3 32 56 VTop 2
SYMATTR InstName L1
SYMATTR Value 5
SYMBOL res -16 96 R90
WINDOW 0 0 56 VBottom 2
WINDOW 3 32 56 VTop 2
SYMATTR InstName R2
SYMATTR Value 10k
TEXT -712 -104 Left 2 !.lib "C:\\Users\\jost1\\OneDrive\\Columbia 2019-2020\\Spring 2020\\Senior Design\\Examples\\LF411.MOD"
TEXT -712 -64 Left 2 !;tran .5
TEXT -712 -32 Left 2 !.ac dec 1000 1 1000
TEXT -712 40 Left 2 ;Created by Muhammad Aziz\nEdited by Jakub Ostrowski\nLast Edited: 05/14/2020
